** MATERIALS
** 
*Material, name=DP1000
*Elastic
210000., 0.3
*Plastic
1622.35334623784,0.0
1626.1958853250337,0.0005
1629.8510215835097,0.001
1633.3278947563947,0.0015
1636.6351988363165,0.002
1639.7812038049105,0.0025
1642.773776312078,0.003
1645.620399346707,0.0035
1648.3281909480368,0.004
1650.9039220044633,0.0045
1653.354033184283,0.005
1655.684651040716,0.0055
1657.9016033314792,0.006
1660.0104335912117,0.0065
1662.0164149931993,0.007
1663.9245635350499,0.0075
1665.7396505813,0.008
1667.46621479431,0.0085
1669.10857348328,0.009
1670.6708333997722,0.0095
** ... 2531 like lines cut
*Density
 7.85e-09,
**