** MATERIALS
** 
*Material, name=DP1000
*Elastic
210000., 0.3
*Plastic
1636.0011080097174,0.0
1639.6178466596155,0.0005
1643.0581948972513,0.001
1646.3307553839036,0.0015
1649.4437112241405,0.002
1652.4048464278412,0.0025
1655.221565374271,0.003
1657.9009113268849,0.0035
1660.4495840451502,0.004
1662.8739565374347,0.0045
1665.180090996843,0.005
1667.3737539598555,0.0055
1669.4604307256704,0.006
1671.4453390723072,0.0065
1673.333442303768,0.007
1675.1294616608795,0.0075
1676.837888126854,0.008
1678.4629936570839,0.0085
1680.0088418612545,0.009
1681.4792981644823,0.0095
** ... 2531 like lines cut
*Density
 7.85e-09,
**